Version 4.1
SHEET 1 1124 1124
WIRE 416 112 368 112
WIRE 416 128 416 112
WIRE 368 160 368 112
WIRE -208 176 -256 176
WIRE -208 208 -208 176
WIRE -256 256 -256 176
WIRE 208 256 128 256
WIRE 368 256 368 224
WIRE 368 256 288 256
WIRE 128 288 128 256
WIRE 368 288 368 256
WIRE -416 368 -544 368
WIRE -256 368 -256 320
WIRE -256 368 -336 368
WIRE -544 384 -544 368
WIRE -256 400 -256 368
WIRE 368 432 368 368
WIRE 368 432 336 432
WIRE 448 432 368 432
WIRE 592 432 528 432
WIRE 656 432 592 432
WIRE 800 432 736 432
WIRE 864 432 800 432
WIRE 992 432 928 432
WIRE 336 464 336 432
WIRE -896 496 -992 496
WIRE -992 512 -992 496
WIRE 352 512 336 512
WIRE -256 544 -256 480
WIRE -256 544 -288 544
WIRE -176 544 -256 544
WIRE -48 544 -112 544
WIRE 16 544 -48 544
WIRE 176 544 96 544
WIRE 288 544 176 544
WIRE 592 544 592 432
WIRE 800 544 800 432
WIRE 992 544 992 432
WIRE -288 576 -288 544
WIRE 336 576 336 560
WIRE 352 576 352 512
WIRE 352 576 336 576
WIRE 336 608 336 576
WIRE 336 608 272 608
WIRE -272 624 -288 624
WIRE 176 640 176 544
WIRE 272 640 272 608
WIRE 336 640 336 608
WIRE -896 656 -896 496
WIRE -736 656 -832 656
WIRE -608 656 -736 656
WIRE -480 656 -528 656
WIRE -336 656 -480 656
WIRE -48 656 -48 544
WIRE 592 672 592 608
WIRE 800 672 800 608
WIRE 992 672 992 624
WIRE -992 688 -992 592
WIRE -288 688 -288 672
WIRE -272 688 -272 624
WIRE -272 688 -288 688
WIRE 112 688 64 688
WIRE -288 720 -288 688
WIRE -288 720 -368 720
WIRE 64 720 64 688
WIRE -736 736 -736 656
WIRE -480 752 -480 656
WIRE -288 752 -288 720
WIRE -48 768 -48 720
WIRE 112 768 112 688
WIRE 176 768 176 720
WIRE -992 800 -992 768
WIRE -368 816 -368 720
WIRE -544 848 -576 848
WIRE -576 864 -576 848
WIRE 112 864 112 848
WIRE 176 864 176 848
WIRE 176 864 112 864
WIRE 272 880 272 720
WIRE 336 880 336 720
WIRE -544 896 -544 848
WIRE -480 896 -480 832
WIRE -288 912 -288 832
WIRE -544 992 -544 976
WIRE -480 992 -480 976
WIRE -480 992 -544 992
WIRE -736 1024 -736 800
WIRE -368 1024 -368 896
WIRE -288 1024 -288 976
FLAG -288 1024 0
FLAG -736 1024 0
FLAG -368 1024 0
FLAG -48 768 0
FLAG 272 880 0
FLAG 336 880 0
FLAG 592 672 0
FLAG 800 672 0
FLAG 992 672 0
FLAG -208 208 0
FLAG 416 128 0
FLAG -544 384 0
FLAG 128 288 0
FLAG -992 800 0
FLAG 992 432 RFOut
IOPIN 992 432 Out
FLAG -576 864 0
FLAG 64 720 0
FLAG -992 496 RFIN
IOPIN -992 496 In
SYMBOL Ncmos -336 576 R0
SYMATTR InstName M1
SYMATTR Value2 l=180n w=10u ad=3.6p as=3.6p pd=40.36u ps=40.36u m=1
SYMATTR Value Ncmos
SYMBOL Ncmos 288 464 R0
SYMATTR InstName M2
SYMATTR Value2 l=180n w=10u ad=3.6p as=3.6p pd=40.36u ps=40.36u m=1
SYMATTR Value Ncmos
SYMBOL ind -304 736 R0
SYMATTR InstName L1
SYMATTR Value 0.1n
SYMATTR SpiceLine Rser=1m
SYMBOL ind -496 736 R0
SYMATTR InstName L2
SYMATTR Value 0.1n
SYMATTR SpiceLine Rser=1m
SYMBOL ind -624 672 R270
WINDOW 0 32 56 VTop 2
WINDOW 3 5 56 VBottom 2
SYMATTR InstName L3
SYMATTR Value 1n
SYMATTR SpiceLine Rser=1m
SYMBOL cap -304 912 R0
SYMATTR InstName C1
SYMATTR Value 15p
SYMBOL cap -752 736 R0
SYMATTR InstName C2
SYMATTR Value 2.5p
SYMBOL cap -832 640 R90
WINDOW 0 0 32 VBottom 2
WINDOW 3 32 32 VTop 2
SYMATTR InstName C3
SYMATTR Value 12.5p
SYMBOL res -384 800 R0
SYMATTR InstName R1
SYMATTR Value 15
SYMBOL res -496 880 R0
SYMATTR InstName R2
SYMATTR Value 15
SYMBOL cap -112 528 R90
WINDOW 0 0 32 VBottom 2
WINDOW 3 32 32 VTop 2
SYMATTR InstName C4
SYMATTR Value 4p
SYMBOL cap -32 720 R180
WINDOW 0 24 56 Left 2
WINDOW 3 24 8 Left 2
SYMATTR InstName C5
SYMATTR Value 1p
SYMBOL ind 0 560 R270
WINDOW 0 32 56 VTop 2
WINDOW 3 5 56 VBottom 2
SYMATTR InstName L4
SYMATTR Value 1.06n
SYMATTR SpiceLine Rser=1m
SYMBOL ind 160 624 R0
SYMATTR InstName L5
SYMATTR Value 3n
SYMATTR SpiceLine Rser=1m
SYMBOL res 160 752 R0
SYMATTR InstName R3
SYMATTR Value 15
SYMBOL ind 320 624 R0
SYMATTR InstName L6
SYMATTR Value 10n
SYMATTR SpiceLine Rser=1m
SYMBOL res 256 624 R0
SYMATTR InstName R4
SYMATTR Value 15
SYMBOL ind 432 448 R270
WINDOW 0 32 56 VTop 2
WINDOW 3 5 56 VBottom 2
SYMATTR InstName L7
SYMATTR Value 2.5n
SYMATTR SpiceLine Rser=1m
SYMBOL ind 640 448 R270
WINDOW 0 32 56 VTop 2
WINDOW 3 5 56 VBottom 2
SYMATTR InstName L8
SYMATTR Value 2.5n
SYMATTR SpiceLine Rser=1m
SYMBOL cap 576 544 R0
SYMATTR InstName C6
SYMATTR Value 2.5p
SYMBOL cap 784 544 R0
SYMATTR InstName C7
SYMATTR Value 2.5p
SYMBOL cap 928 416 R90
WINDOW 0 0 32 VBottom 2
WINDOW 3 32 32 VTop 2
SYMATTR InstName C8
SYMATTR Value 12.5p
SYMBOL res 976 528 R0
SYMATTR InstName R5
SYMATTR Value 50
SYMBOL ind -272 384 R0
SYMATTR InstName L9
SYMATTR Value 0.1µ
SYMATTR SpiceLine Rser=1m
SYMBOL ind 352 272 R0
SYMATTR InstName L10
SYMATTR Value 0.1µ
SYMATTR SpiceLine Rser=1m
SYMBOL cap -272 256 R0
SYMATTR InstName C9
SYMATTR Value 20p
SYMBOL cap 352 160 R0
SYMATTR InstName C10
SYMATTR Value 20p
SYMBOL voltage -320 368 R90
WINDOW 0 -32 56 VBottom 2
WINDOW 3 32 56 VTop 2
WINDOW 123 0 0 Left 0
WINDOW 39 60 56 VTop 2
SYMATTR InstName V1
SYMATTR Value 12
SYMBOL voltage 304 256 R90
WINDOW 0 -32 56 VBottom 2
WINDOW 3 32 56 VTop 2
WINDOW 123 0 0 Left 0
WINDOW 39 0 0 Left 0
SYMATTR InstName V2
SYMATTR Value 12
SYMBOL voltage -992 672 R0
WINDOW 3 24 44 Left 2
WINDOW 123 24 72 Left 2
WINDOW 39 24 100 Left 2
SYMATTR Value SINE(0 0.01 2.45Gig)
SYMATTR Value2 AC 1
SYMATTR SpiceLine Rser=50
SYMATTR InstName V6
SYMBOL voltage -544 992 R180
WINDOW 0 24 96 Left 2
WINDOW 3 24 16 Left 2
WINDOW 123 0 0 Left 0
WINDOW 39 0 0 Left 0
SYMATTR InstName V3
SYMATTR Value 11.5
SYMBOL voltage 112 864 R180
WINDOW 0 24 96 Left 2
WINDOW 3 24 16 Left 2
WINDOW 123 0 0 Left 0
WINDOW 39 0 0 Left 0
SYMATTR InstName V4
SYMATTR Value 11.5
SYMBOL voltage -992 496 R0
WINDOW 123 24 124 Left 2
WINDOW 39 24 152 Left 2
SYMATTR InstName V5
SYMATTR Value SINE(0 0.01 2.541Gig)
SYMATTR Value2 AC 1
SYMATTR SpiceLine Rser=50
TEXT -1112 0 Left 2 !.include "C:\\Users\\Asus\\OneDrive\\Documents\\LTspice\\180nm.lib"
TEXT -592 96 Left 2 !.model Ncmos NMOS (VTO=0.7 KP=2m)
TEXT -1000 144 Left 2 !.tran 0 200n 100n 1p
TEXT -1112 48 Left 2 !.step param Vin list 0.001 0.005 0.01 0.02 0.05 0.1 0.2 0.5 1
TEXT -1080 224 Left 2 !.meas tran Vout_rms RMS V(RFOut)\n.meas tran Vin_rms RMS V(RFIN)
